#
#	File Created by: Spartan '14 Export
#

@<TRIPOS>MOLECULE
M0001
18 16
SMALL
NO_CHARGES


@<TRIPOS>ATOM
    1   C1        -1.254475623     1.082915785     0.378131563     C.3   1  M0001
    2   H2        -1.662912155     1.886722073     1.000506913       H   1  M0001
    3   H3        -1.455810092     1.329598884    -0.668710281       H   1  M0001
    4   C4         0.246234279     0.954787940     0.641914760     C.3   1  M0001
    5   H5         0.403543548     0.827839071     1.721214494       H   1  M0001
    6   H6         0.711975420     1.912897186     0.377196847       H   1  M0001
    7   C7         1.002109149    -0.165728415    -0.097305380     C.3   1  M0001
    8   H8         2.075713229     0.045015782    -0.009877282       H   1  M0001
    9   C9         0.659718565    -0.250742565    -1.582186353     C.3   1  M0001
   10   H10        0.797988668     0.721469137    -2.066979109       H   1  M0001
   11   H11       -0.374272255    -0.571590251    -1.747615002       H   1  M0001
   12   H12        1.312328221    -0.969529437    -2.090493390       H   1  M0001
   13   N13        0.771982405    -1.493784473     0.546148221   N.pl3   1  M0001
   14   H14        1.364135876    -2.156480544     0.007555656       H   1  M0001
   15   H15        1.313575164    -1.451839160     1.432034637       H   1  M0001
   16   Li16      -1.050300827    -1.733990246     0.747043942      Li   1  M0001
   17   O17       -1.958388875    -0.126661649     0.698878327       O   1  M0001
   18   H18       -2.903144697     0.159100880     0.712541437       H   1  M0001


@<TRIPOS>BOND
    1      1      2    1
    2      1      3    1
    3      4      5    1
    4      4      6    1
    5      1      4    1
    6      7      8    1
    7      4      7    1
    8      9     10    1
    9      9     11    1
   10      9     12    1
   11      7      9    1
   12     13     14    1
   13     13     15    1
   14      7     13    1
   15     17     18    1
   16      1     17    1
