REMARK VINA RESULT:      -8.8      6.812     12.706
REMARK  6 active torsions:
REMARK  status: ('A' for Active; 'I' for Inactive)
REMARK    1  A    between atoms: C11_8  and  C12_9 
REMARK    2  A    between atoms: C12_9  and  C15_10 
REMARK    3  A    between atoms: C19_13  and  N24_16 
REMARK    4  A    between atoms: N24_16  and  C26_17 
REMARK    5  A    between atoms: C26_17  and  C29_18 
REMARK    6  A    between atoms: C35_22  and  C40_25 
ROOT
HETATM    1  C1  P31 A1001      12.019   9.745   7.084  1.00 27.50     0.052 A 
HETATM    2  C2  P31 A1001      13.058  10.642   7.281  1.00 26.40     0.143 A 
HETATM    3  N4  P31 A1001      13.714  10.836   8.447  1.00 27.19    -0.239 NA
HETATM    4  C5  P31 A1001      11.585   8.963   8.146  1.00 24.53     0.041 A 
HETATM    5  C7  P31 A1001      12.232   9.128   9.379  1.00 24.15     0.021 A 
HETATM    6  C8  P31 A1001      13.260  10.059   9.444  1.00 25.48     0.159 A 
HETATM    7  N9  P31 A1001      13.743  10.058  10.718  1.00 25.33    -0.240 NA
HETATM    8  C11 P31 A1001      12.099   8.543  10.674  1.00 25.30    -0.022 A 
HETATM    9  C30 P31 A1001      13.054   9.148  11.472  1.00 24.88     0.127 A 
HETATM   10 CL1  P31 A1001      11.263   9.585   5.553  1.00 34.13    -0.083 Cl
ENDROOT
BRANCH   8  11
HETATM   11  C12 P31 A1001      11.116   7.492  11.064  1.00 23.87     0.081 C 
BRANCH  11  12
HETATM   12  C15 P31 A1001      11.771   6.155  10.903  1.00 23.54    -0.036 A 
HETATM   13  C16 P31 A1001      12.042   5.350  11.996  1.00 25.10     0.126 A 
HETATM   14  N18 P31 A1001      12.632   4.139  11.924  1.00 25.23    -0.243 NA
HETATM   15  C19 P31 A1001      12.989   3.672  10.703  1.00 25.98     0.123 A 
HETATM   16  C20 P31 A1001      12.755   4.419   9.550  1.00 23.70     0.051 A 
HETATM   17  C22 P31 A1001      12.145   5.664   9.656  1.00 24.66     0.012 A 
BRANCH  15  18
HETATM   18  N24 P31 A1001      13.598   2.432  10.577  1.00 25.73    -0.371 N 
HETATM   19  H8  P31 A1001      14.627   2.361  10.295  1.00 26.42     0.161 HD
BRANCH  18  20
HETATM   20  C26 P31 A1001      12.825   1.239  10.830  1.00 26.16     0.161 C 
BRANCH  20  21
HETATM   21  C29 P31 A1001      13.392   0.049  10.113  1.00 25.18    -0.023 A 
HETATM   22  C32 P31 A1001      13.569  -1.152  10.779  1.00 25.56     0.126 A 
HETATM   23  N34 P31 A1001      14.073  -2.270  10.222  1.00 26.39    -0.256 NA
HETATM   24  C35 P31 A1001      14.428  -2.203   8.922  1.00 26.76     0.140 A 
HETATM   25  C36 P31 A1001      14.294  -1.048   8.162  1.00 24.14     0.037 A 
HETATM   26  C38 P31 A1001      13.769   0.088   8.771  1.00 27.03     0.012 A 
BRANCH  24  27
HETATM   27  C40 P31 A1001      14.991  -3.453   8.323  1.00 29.35     0.434 C 
HETATM   28  F41 P31 A1001      15.075  -3.399   6.971  1.00 31.91    -0.165 F 
HETATM   29  F42 P31 A1001      16.249  -3.711   8.760  1.00 29.59    -0.165 F 
HETATM   30  F43 P31 A1001      14.270  -4.566   8.605  1.00 31.32    -0.165 F 
ENDBRANCH  24  27
ENDBRANCH  20  21
ENDBRANCH  18  20
ENDBRANCH  15  18
ENDBRANCH  11  12
ENDBRANCH   8  11
TORSDOF 6
