REMARK VINA RESULT:     -10.4      1.610      2.348
REMARK  6 active torsions:
REMARK  status: ('A' for Active; 'I' for Inactive)
REMARK    1  A    between atoms: C11_8  and  C12_9 
REMARK    2  A    between atoms: C12_9  and  C15_10 
REMARK    3  A    between atoms: C19_13  and  N24_16 
REMARK    4  A    between atoms: N24_16  and  C26_17 
REMARK    5  A    between atoms: C26_17  and  C29_18 
REMARK    6  A    between atoms: C35_22  and  C40_25 
ROOT
HETATM    1  C1  P31 A1001      19.916  -6.242   4.863  1.00 27.50     0.052 A 
HETATM    2  C2  P31 A1001      21.087  -5.961   5.552  1.00 26.40     0.143 A 
HETATM    3  N4  P31 A1001      21.186  -5.788   6.888  1.00 27.19    -0.239 NA
HETATM    4  C5  P31 A1001      18.725  -6.362   5.567  1.00 24.53     0.041 A 
HETATM    5  C7  P31 A1001      18.775  -6.189   6.957  1.00 24.15     0.021 A 
HETATM    6  C8  P31 A1001      20.011  -5.913   7.526  1.00 25.48     0.159 A 
HETATM    7  N9  P31 A1001      19.831  -5.784   8.871  1.00 25.33    -0.240 NA
HETATM    8  C11 P31 A1001      17.815  -6.228   8.013  1.00 25.30    -0.022 A 
HETATM    9  C30 P31 A1001      18.513  -5.972   9.181  1.00 24.88     0.127 A 
HETATM   10 CL1  P31 A1001      19.915  -6.442   3.160  1.00 34.13    -0.083 Cl
ENDROOT
BRANCH   8  11
HETATM   11  C12 P31 A1001      16.355  -6.492   7.861  1.00 23.87     0.081 C 
BRANCH  11  12
HETATM   12  C15 P31 A1001      15.614  -5.240   8.215  1.00 23.54    -0.036 A 
HETATM   13  C16 P31 A1001      14.327  -5.285   8.727  1.00 25.10     0.126 A 
HETATM   14  N18 P31 A1001      13.602  -4.199   9.062  1.00 25.23    -0.243 NA
HETATM   15  C19 P31 A1001      14.160  -2.977   8.888  1.00 25.98     0.123 A 
HETATM   16  C20 P31 A1001      15.449  -2.840   8.378  1.00 23.70     0.051 A 
HETATM   17  C22 P31 A1001      16.173  -3.978   8.040  1.00 24.66     0.012 A 
BRANCH  15  18
HETATM   18  N24 P31 A1001      13.454  -1.829   9.220  1.00 25.73    -0.371 N 
HETATM   19  H8  P31 A1001      12.930  -1.280   8.468  1.00 26.42     0.161 HD
BRANCH  18  20
HETATM   20  C26 P31 A1001      13.436  -1.386  10.595  1.00 26.16     0.161 C 
BRANCH  20  21
HETATM   21  C29 P31 A1001      13.221   0.095  10.695  1.00 25.18    -0.023 A 
HETATM   22  C32 P31 A1001      13.169   0.877   9.553  1.00 25.56     0.126 A 
HETATM   23  N34 P31 A1001      12.984   2.210   9.544  1.00 26.39    -0.256 NA
HETATM   24  C35 P31 A1001      12.841   2.820  10.739  1.00 26.76     0.140 A 
HETATM   25  C36 P31 A1001      12.877   2.132  11.945  1.00 24.14     0.037 A 
HETATM   26  C38 P31 A1001      13.070   0.754  11.915  1.00 27.03     0.012 A 
BRANCH  24  27
HETATM   27  C40 P31 A1001      12.642   4.302  10.708  1.00 29.35     0.434 C 
HETATM   28  F41 P31 A1001      11.817   4.704   9.710  1.00 31.91    -0.165 F 
HETATM   29  F42 P31 A1001      12.087   4.769  11.855  1.00 29.59    -0.165 F 
HETATM   30  F43 P31 A1001      13.791   5.003  10.545  1.00 31.32    -0.165 F 
ENDBRANCH  24  27
ENDBRANCH  20  21
ENDBRANCH  18  20
ENDBRANCH  15  18
ENDBRANCH  11  12
ENDBRANCH   8  11
TORSDOF 6
