REMARK VINA RESULT:      -8.5      9.807     11.650
REMARK  6 active torsions:
REMARK  status: ('A' for Active; 'I' for Inactive)
REMARK    1  A    between atoms: C11_8  and  C12_9 
REMARK    2  A    between atoms: C12_9  and  C15_10 
REMARK    3  A    between atoms: C19_13  and  N24_16 
REMARK    4  A    between atoms: N24_16  and  C26_17 
REMARK    5  A    between atoms: C26_17  and  C29_18 
REMARK    6  A    between atoms: C35_22  and  C40_25 
ROOT
HETATM    1  C1  P31 A1001      17.486   9.107   1.250  1.00 27.50     0.052 A 
HETATM    2  C2  P31 A1001      16.912   9.574   0.077  1.00 26.40     0.143 A 
HETATM    3  N4  P31 A1001      15.902   8.974  -0.592  1.00 27.19    -0.239 NA
HETATM    4  C5  P31 A1001      17.016   7.929   1.816  1.00 24.53     0.041 A 
HETATM    5  C7  P31 A1001      15.971   7.267   1.158  1.00 24.15     0.021 A 
HETATM    6  C8  P31 A1001      15.482   7.840  -0.008  1.00 25.48     0.159 A 
HETATM    7  N9  P31 A1001      14.482   7.041  -0.477  1.00 25.33    -0.240 NA
HETATM    8  C11 P31 A1001      15.225   6.073   1.396  1.00 25.30    -0.022 A 
HETATM    9  C30 P31 A1001      14.314   5.972   0.359  1.00 24.88     0.127 A 
HETATM   10 CL1  P31 A1001      18.765   9.959   2.011  1.00 34.13    -0.083 Cl
ENDROOT
BRANCH   8  11
HETATM   11  C12 P31 A1001      15.413   5.136   2.541  1.00 23.87     0.081 C 
BRANCH  11  12
HETATM   12  C15 P31 A1001      14.666   5.682   3.720  1.00 23.54    -0.036 A 
HETATM   13  C16 P31 A1001      13.294   5.530   3.835  1.00 25.10     0.126 A 
HETATM   14  N18 P31 A1001      12.560   5.999   4.865  1.00 25.23    -0.243 NA
HETATM   15  C19 P31 A1001      13.198   6.667   5.856  1.00 25.98     0.123 A 
HETATM   16  C20 P31 A1001      14.577   6.866   5.818  1.00 23.70     0.051 A 
HETATM   17  C22 P31 A1001      15.308   6.372   4.743  1.00 24.66     0.012 A 
BRANCH  15  18
HETATM   18  N24 P31 A1001      12.487   7.167   6.937  1.00 25.73    -0.371 N 
HETATM   19  H8  P31 A1001      11.433   7.333   6.861  1.00 26.42     0.161 HD
BRANCH  18  20
HETATM   20  C26 P31 A1001      13.186   7.459   8.166  1.00 26.16     0.161 C 
BRANCH  20  21
HETATM   21  C29 P31 A1001      13.184   6.282   9.097  1.00 25.18    -0.023 A 
HETATM   22  C32 P31 A1001      12.127   6.079   9.969  1.00 25.56     0.126 A 
HETATM   23  N34 P31 A1001      12.039   5.057  10.841  1.00 26.39    -0.256 NA
HETATM   24  C35 P31 A1001      13.059   4.175  10.861  1.00 26.76     0.140 A 
HETATM   25  C36 P31 A1001      14.168   4.285  10.030  1.00 24.14     0.037 A 
HETATM   26  C38 P31 A1001      14.224   5.355   9.141  1.00 27.03     0.012 A 
BRANCH  24  27
HETATM   27  C40 P31 A1001      12.946   3.050  11.840  1.00 29.35     0.434 C 
HETATM   28  F41 P31 A1001      12.037   3.290  12.818  1.00 31.91    -0.165 F 
HETATM   29  F42 P31 A1001      12.556   1.892  11.251  1.00 29.59    -0.165 F 
HETATM   30  F43 P31 A1001      14.108   2.763  12.478  1.00 31.32    -0.165 F 
ENDBRANCH  24  27
ENDBRANCH  20  21
ENDBRANCH  18  20
ENDBRANCH  15  18
ENDBRANCH  11  12
ENDBRANCH   8  11
TORSDOF 6
