MODEL 1
REMARK VINA RESULT:     -11.5      0.000      0.000
REMARK  6 active torsions:
REMARK  status: ('A' for Active; 'I' for Inactive)
REMARK    1  A    between atoms: C11_8  and  C12_9 
REMARK    2  A    between atoms: C12_9  and  C15_10 
REMARK    3  A    between atoms: C19_13  and  N24_16 
REMARK    4  A    between atoms: N24_16  and  C26_17 
REMARK    5  A    between atoms: C26_17  and  C29_18 
REMARK    6  A    between atoms: C35_22  and  C40_25 
ROOT
HETATM    1  C1  P31 A1001      19.471  -6.880   2.786  1.00 27.50     0.052 A 
HETATM    2  C2  P31 A1001      20.669  -6.187   2.876  1.00 26.40     0.143 A 
HETATM    3  N4  P31 A1001      21.213  -5.710   4.017  1.00 27.19    -0.239 NA
HETATM    4  C5  P31 A1001      18.739  -7.125   3.940  1.00 24.53     0.041 A 
HETATM    5  C7  P31 A1001      19.260  -6.649   5.151  1.00 24.15     0.021 A 
HETATM    6  C8  P31 A1001      20.471  -5.971   5.106  1.00 25.48     0.159 A 
HETATM    7  N9  P31 A1001      20.789  -5.600   6.378  1.00 25.33    -0.240 NA
HETATM    8  C11 P31 A1001      18.840  -6.687   6.514  1.00 25.30    -0.022 A 
HETATM    9  C30 P31 A1001      19.816  -6.026   7.239  1.00 24.88     0.127 A 
HETATM   10 CL1  P31 A1001      18.880  -7.439   1.276  1.00 34.13    -0.083 Cl
ENDROOT
BRANCH   8  11
HETATM   11  C12 P31 A1001      17.590  -7.318   7.029  1.00 23.87     0.081 C 
BRANCH  11  12
HETATM   12  C15 P31 A1001      16.718  -6.238   7.592  1.00 23.54    -0.036 A 
HETATM   13  C16 P31 A1001      16.005  -6.427   8.764  1.00 25.10     0.126 A 
HETATM   14  N18 P31 A1001      15.199  -5.501   9.324  1.00 25.23    -0.243 NA
HETATM   15  C19 P31 A1001      15.071  -4.303   8.703  1.00 25.98     0.123 A 
HETATM   16  C20 P31 A1001      15.752  -4.031   7.518  1.00 23.70     0.051 A 
HETATM   17  C22 P31 A1001      16.575  -5.005   6.964  1.00 24.66     0.012 A 
BRANCH  15  18
HETATM   18  N24 P31 A1001      14.256  -3.318   9.240  1.00 25.73    -0.371 N 
HETATM   19  H8  P31 A1001      13.884  -3.408  10.238  1.00 26.42     0.161 HD
BRANCH  18  20
HETATM   20  C26 P31 A1001      13.915  -2.169   8.434  1.00 26.16     0.161 C 
BRANCH  20  21
HETATM   21  C29 P31 A1001      13.664  -0.955   9.279  1.00 25.18    -0.023 A 
HETATM   22  C32 P31 A1001      13.655  -1.052  10.661  1.00 25.56     0.126 A 
HETATM   23  N34 P31 A1001      13.436  -0.022  11.500  1.00 26.39    -0.256 NA
HETATM   24  C35 P31 A1001      13.208   1.186  10.945  1.00 26.76     0.140 A 
HETATM   25  C36 P31 A1001      13.194   1.394   9.571  1.00 24.14     0.037 A 
HETATM   26  C38 P31 A1001      13.425   0.306   8.735  1.00 27.03     0.012 A 
BRANCH  24  27
HETATM   27  C40 P31 A1001      12.962   2.317  11.892  1.00 29.35     0.434 C 
HETATM   28  F41 P31 A1001      12.280   1.938  13.001  1.00 31.91    -0.165 F 
HETATM   29  F42 P31 A1001      14.115   2.873  12.341  1.00 29.59    -0.165 F 
HETATM   30  F43 P31 A1001      12.250   3.337  11.351  1.00 31.32    -0.165 F 
ENDBRANCH  24  27
ENDBRANCH  20  21
ENDBRANCH  18  20
ENDBRANCH  15  18
ENDBRANCH  11  12
ENDBRANCH   8  11
TORSDOF 6
ENDMDL
MODEL 2
REMARK VINA RESULT:     -10.4      1.610      2.348
REMARK  6 active torsions:
REMARK  status: ('A' for Active; 'I' for Inactive)
REMARK    1  A    between atoms: C11_8  and  C12_9 
REMARK    2  A    between atoms: C12_9  and  C15_10 
REMARK    3  A    between atoms: C19_13  and  N24_16 
REMARK    4  A    between atoms: N24_16  and  C26_17 
REMARK    5  A    between atoms: C26_17  and  C29_18 
REMARK    6  A    between atoms: C35_22  and  C40_25 
ROOT
HETATM    1  C1  P31 A1001      19.916  -6.242   4.863  1.00 27.50     0.052 A 
HETATM    2  C2  P31 A1001      21.087  -5.961   5.552  1.00 26.40     0.143 A 
HETATM    3  N4  P31 A1001      21.186  -5.788   6.888  1.00 27.19    -0.239 NA
HETATM    4  C5  P31 A1001      18.725  -6.362   5.567  1.00 24.53     0.041 A 
HETATM    5  C7  P31 A1001      18.775  -6.189   6.957  1.00 24.15     0.021 A 
HETATM    6  C8  P31 A1001      20.011  -5.913   7.526  1.00 25.48     0.159 A 
HETATM    7  N9  P31 A1001      19.831  -5.784   8.871  1.00 25.33    -0.240 NA
HETATM    8  C11 P31 A1001      17.815  -6.228   8.013  1.00 25.30    -0.022 A 
HETATM    9  C30 P31 A1001      18.513  -5.972   9.181  1.00 24.88     0.127 A 
HETATM   10 CL1  P31 A1001      19.915  -6.442   3.160  1.00 34.13    -0.083 Cl
ENDROOT
BRANCH   8  11
HETATM   11  C12 P31 A1001      16.355  -6.492   7.861  1.00 23.87     0.081 C 
BRANCH  11  12
HETATM   12  C15 P31 A1001      15.614  -5.240   8.215  1.00 23.54    -0.036 A 
HETATM   13  C16 P31 A1001      14.327  -5.285   8.727  1.00 25.10     0.126 A 
HETATM   14  N18 P31 A1001      13.602  -4.199   9.062  1.00 25.23    -0.243 NA
HETATM   15  C19 P31 A1001      14.160  -2.977   8.888  1.00 25.98     0.123 A 
HETATM   16  C20 P31 A1001      15.449  -2.840   8.378  1.00 23.70     0.051 A 
HETATM   17  C22 P31 A1001      16.173  -3.978   8.040  1.00 24.66     0.012 A 
BRANCH  15  18
HETATM   18  N24 P31 A1001      13.454  -1.829   9.220  1.00 25.73    -0.371 N 
HETATM   19  H8  P31 A1001      12.930  -1.280   8.468  1.00 26.42     0.161 HD
BRANCH  18  20
HETATM   20  C26 P31 A1001      13.436  -1.386  10.595  1.00 26.16     0.161 C 
BRANCH  20  21
HETATM   21  C29 P31 A1001      13.221   0.095  10.695  1.00 25.18    -0.023 A 
HETATM   22  C32 P31 A1001      13.169   0.877   9.553  1.00 25.56     0.126 A 
HETATM   23  N34 P31 A1001      12.984   2.210   9.544  1.00 26.39    -0.256 NA
HETATM   24  C35 P31 A1001      12.841   2.820  10.739  1.00 26.76     0.140 A 
HETATM   25  C36 P31 A1001      12.877   2.132  11.945  1.00 24.14     0.037 A 
HETATM   26  C38 P31 A1001      13.070   0.754  11.915  1.00 27.03     0.012 A 
BRANCH  24  27
HETATM   27  C40 P31 A1001      12.642   4.302  10.708  1.00 29.35     0.434 C 
HETATM   28  F41 P31 A1001      11.817   4.704   9.710  1.00 31.91    -0.165 F 
HETATM   29  F42 P31 A1001      12.087   4.769  11.855  1.00 29.59    -0.165 F 
HETATM   30  F43 P31 A1001      13.791   5.003  10.545  1.00 31.32    -0.165 F 
ENDBRANCH  24  27
ENDBRANCH  20  21
ENDBRANCH  18  20
ENDBRANCH  15  18
ENDBRANCH  11  12
ENDBRANCH   8  11
TORSDOF 6
ENDMDL
MODEL 3
REMARK VINA RESULT:      -9.2      7.191     13.299
REMARK  6 active torsions:
REMARK  status: ('A' for Active; 'I' for Inactive)
REMARK    1  A    between atoms: C11_8  and  C12_9 
REMARK    2  A    between atoms: C12_9  and  C15_10 
REMARK    3  A    between atoms: C19_13  and  N24_16 
REMARK    4  A    between atoms: N24_16  and  C26_17 
REMARK    5  A    between atoms: C26_17  and  C29_18 
REMARK    6  A    between atoms: C35_22  and  C40_25 
ROOT
HETATM    1  C1  P31 A1001      12.488  10.521  13.243  1.00 27.50     0.052 A 
HETATM    2  C2  P31 A1001      13.567  11.291  12.836  1.00 26.40     0.143 A 
HETATM    3  N4  P31 A1001      14.206  11.177  11.650  1.00 27.19    -0.239 NA
HETATM    4  C5  P31 A1001      11.992   9.541  12.393  1.00 24.53     0.041 A 
HETATM    5  C7  P31 A1001      12.622   9.382  11.151  1.00 24.15     0.021 A 
HETATM    6  C8  P31 A1001      13.692  10.218  10.863  1.00 25.48     0.159 A 
HETATM    7  N9  P31 A1001      14.150   9.895   9.620  1.00 25.33    -0.240 NA
HETATM    8  C11 P31 A1001      12.432   8.524  10.027  1.00 25.30    -0.022 A 
HETATM    9  C30 P31 A1001      13.400   8.877   9.102  1.00 24.88     0.127 A 
HETATM   10 CL1  P31 A1001      11.757  10.758  14.776  1.00 34.13    -0.083 Cl
ENDROOT
BRANCH   8  11
HETATM   11  C12 P31 A1001      11.391   7.463   9.900  1.00 23.87     0.081 C 
BRANCH  11  12
HETATM   12  C15 P31 A1001      11.982   6.169  10.368  1.00 23.54    -0.036 A 
HETATM   13  C16 P31 A1001      11.853   5.753  11.683  1.00 25.10     0.126 A 
HETATM   14  N18 P31 A1001      12.363   4.604  12.172  1.00 25.23    -0.243 NA
HETATM   15  C19 P31 A1001      13.051   3.797  11.328  1.00 25.98     0.123 A 
HETATM   16  C20 P31 A1001      13.229   4.141   9.990  1.00 23.70     0.051 A 
HETATM   17  C22 P31 A1001      12.693   5.332   9.514  1.00 24.66     0.012 A 
BRANCH  15  18
HETATM   18  N24 P31 A1001      13.592   2.604  11.784  1.00 25.73    -0.371 N 
HETATM   19  H8  P31 A1001      14.610   2.561  12.108  1.00 26.42     0.161 HD
BRANCH  18  20
HETATM   20  C26 P31 A1001      12.765   1.421  11.815  1.00 26.16     0.161 C 
BRANCH  20  21
HETATM   21  C29 P31 A1001      13.224   0.398  10.820  1.00 25.18    -0.023 A 
HETATM   22  C32 P31 A1001      13.582  -0.875  11.235  1.00 25.56     0.126 A 
HETATM   23  N34 P31 A1001      14.009  -1.856  10.418  1.00 26.39    -0.256 NA
HETATM   24  C35 P31 A1001      14.093  -1.569   9.103  1.00 26.76     0.140 A 
HETATM   25  C36 P31 A1001      13.760  -0.325   8.580  1.00 24.14     0.037 A 
HETATM   26  C38 P31 A1001      13.322   0.665   9.455  1.00 27.03     0.012 A 
BRANCH  24  27
HETATM   27  C40 P31 A1001      14.574  -2.670   8.212  1.00 29.35     0.434 C 
HETATM   28  F41 P31 A1001      15.224  -3.650   8.887  1.00 31.91    -0.165 F 
HETATM   29  F42 P31 A1001      13.557  -3.285   7.559  1.00 29.59    -0.165 F 
HETATM   30  F43 P31 A1001      15.432  -2.254   7.247  1.00 31.32    -0.165 F 
ENDBRANCH  24  27
ENDBRANCH  20  21
ENDBRANCH  18  20
ENDBRANCH  15  18
ENDBRANCH  11  12
ENDBRANCH   8  11
TORSDOF 6
ENDMDL
MODEL 4
REMARK VINA RESULT:      -8.9      6.391     12.022
REMARK  6 active torsions:
REMARK  status: ('A' for Active; 'I' for Inactive)
REMARK    1  A    between atoms: C11_8  and  C12_9 
REMARK    2  A    between atoms: C12_9  and  C15_10 
REMARK    3  A    between atoms: C19_13  and  N24_16 
REMARK    4  A    between atoms: N24_16  and  C26_17 
REMARK    5  A    between atoms: C26_17  and  C29_18 
REMARK    6  A    between atoms: C35_22  and  C40_25 
ROOT
HETATM    1  C1  P31 A1001       9.370   8.029   9.383  1.00 27.50     0.052 A 
HETATM    2  C2  P31 A1001       9.973   8.544   8.246  1.00 26.40     0.143 A 
HETATM    3  N4  P31 A1001      11.223   8.251   7.822  1.00 27.19    -0.239 NA
HETATM    4  C5  P31 A1001      10.074   7.137  10.182  1.00 24.53     0.041 A 
HETATM    5  C7  P31 A1001      11.377   6.803   9.786  1.00 24.15     0.021 A 
HETATM    6  C8  P31 A1001      11.864   7.386   8.624  1.00 25.48     0.159 A 
HETATM    7  N9  P31 A1001      13.133   6.928   8.429  1.00 25.33    -0.240 NA
HETATM    8  C11 P31 A1001      12.402   5.956  10.305  1.00 25.30    -0.022 A 
HETATM    9  C30 P31 A1001      13.471   6.064   9.433  1.00 24.88     0.127 A 
HETATM   10 CL1  P31 A1001       7.773   8.474   9.820  1.00 34.13    -0.083 Cl
ENDROOT
BRANCH   8  11
HETATM   11  C12 P31 A1001      12.314   5.131  11.544  1.00 23.87     0.081 C 
BRANCH  11  12
HETATM   12  C15 P31 A1001      12.551   3.699  11.171  1.00 23.54    -0.036 A 
HETATM   13  C16 P31 A1001      12.787   2.734  12.136  1.00 25.10     0.126 A 
HETATM   14  N18 P31 A1001      13.013   1.431  11.871  1.00 25.23    -0.243 NA
HETATM   15  C19 P31 A1001      13.013   1.031  10.577  1.00 25.98     0.123 A 
HETATM   16  C20 P31 A1001      12.786   1.937   9.544  1.00 23.70     0.051 A 
HETATM   17  C22 P31 A1001      12.557   3.274   9.847  1.00 24.66     0.012 A 
BRANCH  15  18
HETATM   18  N24 P31 A1001      13.238  -0.299  10.254  1.00 25.73    -0.371 N 
HETATM   19  H8  P31 A1001      13.245  -1.048  11.017  1.00 26.42     0.161 HD
BRANCH  18  20
HETATM   20  C26 P31 A1001      13.465  -0.661   8.874  1.00 26.16     0.161 C 
BRANCH  20  21
HETATM   21  C29 P31 A1001      14.068  -2.029   8.752  1.00 25.18    -0.023 A 
HETATM   22  C32 P31 A1001      13.269  -3.158   8.833  1.00 25.56     0.126 A 
HETATM   23  N34 P31 A1001      13.718  -4.424   8.739  1.00 26.39    -0.256 NA
HETATM   24  C35 P31 A1001      15.044  -4.594   8.554  1.00 26.76     0.140 A 
HETATM   25  C36 P31 A1001      15.935  -3.532   8.461  1.00 24.14     0.037 A 
HETATM   26  C38 P31 A1001      15.433  -2.237   8.562  1.00 27.03     0.012 A 
BRANCH  24  27
HETATM   27  C40 P31 A1001      15.525  -6.007   8.458  1.00 29.35     0.434 C 
HETATM   28  F41 P31 A1001      16.403  -6.198   7.444  1.00 31.91    -0.165 F 
HETATM   29  F42 P31 A1001      16.168  -6.408   9.583  1.00 29.59    -0.165 F 
HETATM   30  F43 P31 A1001      14.531  -6.909   8.263  1.00 31.32    -0.165 F 
ENDBRANCH  24  27
ENDBRANCH  20  21
ENDBRANCH  18  20
ENDBRANCH  15  18
ENDBRANCH  11  12
ENDBRANCH   8  11
TORSDOF 6
ENDMDL
MODEL 5
REMARK VINA RESULT:      -8.8      6.812     12.706
REMARK  6 active torsions:
REMARK  status: ('A' for Active; 'I' for Inactive)
REMARK    1  A    between atoms: C11_8  and  C12_9 
REMARK    2  A    between atoms: C12_9  and  C15_10 
REMARK    3  A    between atoms: C19_13  and  N24_16 
REMARK    4  A    between atoms: N24_16  and  C26_17 
REMARK    5  A    between atoms: C26_17  and  C29_18 
REMARK    6  A    between atoms: C35_22  and  C40_25 
ROOT
HETATM    1  C1  P31 A1001      12.019   9.745   7.084  1.00 27.50     0.052 A 
HETATM    2  C2  P31 A1001      13.058  10.642   7.281  1.00 26.40     0.143 A 
HETATM    3  N4  P31 A1001      13.714  10.836   8.447  1.00 27.19    -0.239 NA
HETATM    4  C5  P31 A1001      11.585   8.963   8.146  1.00 24.53     0.041 A 
HETATM    5  C7  P31 A1001      12.232   9.128   9.379  1.00 24.15     0.021 A 
HETATM    6  C8  P31 A1001      13.260  10.059   9.444  1.00 25.48     0.159 A 
HETATM    7  N9  P31 A1001      13.743  10.058  10.718  1.00 25.33    -0.240 NA
HETATM    8  C11 P31 A1001      12.099   8.543  10.674  1.00 25.30    -0.022 A 
HETATM    9  C30 P31 A1001      13.054   9.148  11.472  1.00 24.88     0.127 A 
HETATM   10 CL1  P31 A1001      11.263   9.585   5.553  1.00 34.13    -0.083 Cl
ENDROOT
BRANCH   8  11
HETATM   11  C12 P31 A1001      11.116   7.492  11.064  1.00 23.87     0.081 C 
BRANCH  11  12
HETATM   12  C15 P31 A1001      11.771   6.155  10.903  1.00 23.54    -0.036 A 
HETATM   13  C16 P31 A1001      12.042   5.350  11.996  1.00 25.10     0.126 A 
HETATM   14  N18 P31 A1001      12.632   4.139  11.924  1.00 25.23    -0.243 NA
HETATM   15  C19 P31 A1001      12.989   3.672  10.703  1.00 25.98     0.123 A 
HETATM   16  C20 P31 A1001      12.755   4.419   9.550  1.00 23.70     0.051 A 
HETATM   17  C22 P31 A1001      12.145   5.664   9.656  1.00 24.66     0.012 A 
BRANCH  15  18
HETATM   18  N24 P31 A1001      13.598   2.432  10.577  1.00 25.73    -0.371 N 
HETATM   19  H8  P31 A1001      14.627   2.361  10.295  1.00 26.42     0.161 HD
BRANCH  18  20
HETATM   20  C26 P31 A1001      12.825   1.239  10.830  1.00 26.16     0.161 C 
BRANCH  20  21
HETATM   21  C29 P31 A1001      13.392   0.049  10.113  1.00 25.18    -0.023 A 
HETATM   22  C32 P31 A1001      13.569  -1.152  10.779  1.00 25.56     0.126 A 
HETATM   23  N34 P31 A1001      14.073  -2.270  10.222  1.00 26.39    -0.256 NA
HETATM   24  C35 P31 A1001      14.428  -2.203   8.922  1.00 26.76     0.140 A 
HETATM   25  C36 P31 A1001      14.294  -1.048   8.162  1.00 24.14     0.037 A 
HETATM   26  C38 P31 A1001      13.769   0.088   8.771  1.00 27.03     0.012 A 
BRANCH  24  27
HETATM   27  C40 P31 A1001      14.991  -3.453   8.323  1.00 29.35     0.434 C 
HETATM   28  F41 P31 A1001      15.075  -3.399   6.971  1.00 31.91    -0.165 F 
HETATM   29  F42 P31 A1001      16.249  -3.711   8.760  1.00 29.59    -0.165 F 
HETATM   30  F43 P31 A1001      14.270  -4.566   8.605  1.00 31.32    -0.165 F 
ENDBRANCH  24  27
ENDBRANCH  20  21
ENDBRANCH  18  20
ENDBRANCH  15  18
ENDBRANCH  11  12
ENDBRANCH   8  11
TORSDOF 6
ENDMDL
MODEL 6
REMARK VINA RESULT:      -8.6      2.061      3.549
REMARK  6 active torsions:
REMARK  status: ('A' for Active; 'I' for Inactive)
REMARK    1  A    between atoms: C11_8  and  C12_9 
REMARK    2  A    between atoms: C12_9  and  C15_10 
REMARK    3  A    between atoms: C19_13  and  N24_16 
REMARK    4  A    between atoms: N24_16  and  C26_17 
REMARK    5  A    between atoms: C26_17  and  C29_18 
REMARK    6  A    between atoms: C35_22  and  C40_25 
ROOT
HETATM    1  C1  P31 A1001      18.805  -6.184   5.174  1.00 27.50     0.052 A 
HETATM    2  C2  P31 A1001      19.874  -6.310   6.048  1.00 26.40     0.143 A 
HETATM    3  N4  P31 A1001      19.828  -6.083   7.380  1.00 27.19    -0.239 NA
HETATM    4  C5  P31 A1001      17.566  -5.794   5.667  1.00 24.53     0.041 A 
HETATM    5  C7  P31 A1001      17.466  -5.544   7.042  1.00 24.15     0.021 A 
HETATM    6  C8  P31 A1001      18.611  -5.708   7.810  1.00 25.48     0.159 A 
HETATM    7  N9  P31 A1001      18.293  -5.416   9.102  1.00 25.33    -0.240 NA
HETATM    8  C11 P31 A1001      16.415  -5.139   7.919  1.00 25.30    -0.022 A 
HETATM    9  C30 P31 A1001      16.972  -5.072   9.185  1.00 24.88     0.127 A 
HETATM   10 CL1  P31 A1001      18.986  -6.502   3.499  1.00 34.13    -0.083 Cl
ENDROOT
BRANCH   8  11
HETATM   11  C12 P31 A1001      15.007  -4.848   7.525  1.00 23.87     0.081 C 
BRANCH  11  12
HETATM   12  C15 P31 A1001      14.581  -3.584   8.207  1.00 23.54    -0.036 A 
HETATM   13  C16 P31 A1001      15.362  -2.441   8.158  1.00 25.10     0.126 A 
HETATM   14  N18 P31 A1001      15.041  -1.274   8.751  1.00 25.23    -0.243 NA
HETATM   15  C19 P31 A1001      13.881  -1.205   9.447  1.00 25.98     0.123 A 
HETATM   16  C20 P31 A1001      13.037  -2.310   9.549  1.00 23.70     0.051 A 
HETATM   17  C22 P31 A1001      13.394  -3.501   8.927  1.00 24.66     0.012 A 
BRANCH  15  18
HETATM   18  N24 P31 A1001      13.507  -0.026  10.074  1.00 25.73    -0.371 N 
HETATM   19  H8  P31 A1001      13.137  -0.040  11.078  1.00 26.42     0.161 HD
BRANCH  18  20
HETATM   20  C26 P31 A1001      13.623   1.221   9.355  1.00 26.16     0.161 C 
BRANCH  20  21
HETATM   21  C29 P31 A1001      13.151   2.382  10.181  1.00 25.18    -0.023 A 
HETATM   22  C32 P31 A1001      12.929   2.232  11.540  1.00 25.56     0.126 A 
HETATM   23  N34 P31 A1001      12.503   3.212  12.360  1.00 26.39    -0.256 NA
HETATM   24  C35 P31 A1001      12.279   4.422  11.808  1.00 26.76     0.140 A 
HETATM   25  C36 P31 A1001      12.469   4.681  10.456  1.00 24.14     0.037 A 
HETATM   26  C38 P31 A1001      12.909   3.644   9.639  1.00 27.03     0.012 A 
BRANCH  24  27
HETATM   27  C40 P31 A1001      11.801   5.496  12.733  1.00 29.35     0.434 C 
HETATM   28  F41 P31 A1001      12.173   6.738  12.338  1.00 31.91    -0.165 F 
HETATM   29  F42 P31 A1001      10.448   5.528  12.827  1.00 29.59    -0.165 F 
HETATM   30  F43 P31 A1001      12.254   5.361  14.004  1.00 31.32    -0.165 F 
ENDBRANCH  24  27
ENDBRANCH  20  21
ENDBRANCH  18  20
ENDBRANCH  15  18
ENDBRANCH  11  12
ENDBRANCH   8  11
TORSDOF 6
ENDMDL
MODEL 7
REMARK VINA RESULT:      -8.5      9.807     11.650
REMARK  6 active torsions:
REMARK  status: ('A' for Active; 'I' for Inactive)
REMARK    1  A    between atoms: C11_8  and  C12_9 
REMARK    2  A    between atoms: C12_9  and  C15_10 
REMARK    3  A    between atoms: C19_13  and  N24_16 
REMARK    4  A    between atoms: N24_16  and  C26_17 
REMARK    5  A    between atoms: C26_17  and  C29_18 
REMARK    6  A    between atoms: C35_22  and  C40_25 
ROOT
HETATM    1  C1  P31 A1001      17.486   9.107   1.250  1.00 27.50     0.052 A 
HETATM    2  C2  P31 A1001      16.912   9.574   0.077  1.00 26.40     0.143 A 
HETATM    3  N4  P31 A1001      15.902   8.974  -0.592  1.00 27.19    -0.239 NA
HETATM    4  C5  P31 A1001      17.016   7.929   1.816  1.00 24.53     0.041 A 
HETATM    5  C7  P31 A1001      15.971   7.267   1.158  1.00 24.15     0.021 A 
HETATM    6  C8  P31 A1001      15.482   7.840  -0.008  1.00 25.48     0.159 A 
HETATM    7  N9  P31 A1001      14.482   7.041  -0.477  1.00 25.33    -0.240 NA
HETATM    8  C11 P31 A1001      15.225   6.073   1.396  1.00 25.30    -0.022 A 
HETATM    9  C30 P31 A1001      14.314   5.972   0.359  1.00 24.88     0.127 A 
HETATM   10 CL1  P31 A1001      18.765   9.959   2.011  1.00 34.13    -0.083 Cl
ENDROOT
BRANCH   8  11
HETATM   11  C12 P31 A1001      15.413   5.136   2.541  1.00 23.87     0.081 C 
BRANCH  11  12
HETATM   12  C15 P31 A1001      14.666   5.682   3.720  1.00 23.54    -0.036 A 
HETATM   13  C16 P31 A1001      13.294   5.530   3.835  1.00 25.10     0.126 A 
HETATM   14  N18 P31 A1001      12.560   5.999   4.865  1.00 25.23    -0.243 NA
HETATM   15  C19 P31 A1001      13.198   6.667   5.856  1.00 25.98     0.123 A 
HETATM   16  C20 P31 A1001      14.577   6.866   5.818  1.00 23.70     0.051 A 
HETATM   17  C22 P31 A1001      15.308   6.372   4.743  1.00 24.66     0.012 A 
BRANCH  15  18
HETATM   18  N24 P31 A1001      12.487   7.167   6.937  1.00 25.73    -0.371 N 
HETATM   19  H8  P31 A1001      11.433   7.333   6.861  1.00 26.42     0.161 HD
BRANCH  18  20
HETATM   20  C26 P31 A1001      13.186   7.459   8.166  1.00 26.16     0.161 C 
BRANCH  20  21
HETATM   21  C29 P31 A1001      13.184   6.282   9.097  1.00 25.18    -0.023 A 
HETATM   22  C32 P31 A1001      12.127   6.079   9.969  1.00 25.56     0.126 A 
HETATM   23  N34 P31 A1001      12.039   5.057  10.841  1.00 26.39    -0.256 NA
HETATM   24  C35 P31 A1001      13.059   4.175  10.861  1.00 26.76     0.140 A 
HETATM   25  C36 P31 A1001      14.168   4.285  10.030  1.00 24.14     0.037 A 
HETATM   26  C38 P31 A1001      14.224   5.355   9.141  1.00 27.03     0.012 A 
BRANCH  24  27
HETATM   27  C40 P31 A1001      12.946   3.050  11.840  1.00 29.35     0.434 C 
HETATM   28  F41 P31 A1001      12.037   3.290  12.818  1.00 31.91    -0.165 F 
HETATM   29  F42 P31 A1001      12.556   1.892  11.251  1.00 29.59    -0.165 F 
HETATM   30  F43 P31 A1001      14.108   2.763  12.478  1.00 31.32    -0.165 F 
ENDBRANCH  24  27
ENDBRANCH  20  21
ENDBRANCH  18  20
ENDBRANCH  15  18
ENDBRANCH  11  12
ENDBRANCH   8  11
TORSDOF 6
ENDMDL
