REMARK VINA RESULT:      -9.2      7.191     13.299
REMARK  6 active torsions:
REMARK  status: ('A' for Active; 'I' for Inactive)
REMARK    1  A    between atoms: C11_8  and  C12_9 
REMARK    2  A    between atoms: C12_9  and  C15_10 
REMARK    3  A    between atoms: C19_13  and  N24_16 
REMARK    4  A    between atoms: N24_16  and  C26_17 
REMARK    5  A    between atoms: C26_17  and  C29_18 
REMARK    6  A    between atoms: C35_22  and  C40_25 
ROOT
HETATM    1  C1  P31 A1001      12.488  10.521  13.243  1.00 27.50     0.052 A 
HETATM    2  C2  P31 A1001      13.567  11.291  12.836  1.00 26.40     0.143 A 
HETATM    3  N4  P31 A1001      14.206  11.177  11.650  1.00 27.19    -0.239 NA
HETATM    4  C5  P31 A1001      11.992   9.541  12.393  1.00 24.53     0.041 A 
HETATM    5  C7  P31 A1001      12.622   9.382  11.151  1.00 24.15     0.021 A 
HETATM    6  C8  P31 A1001      13.692  10.218  10.863  1.00 25.48     0.159 A 
HETATM    7  N9  P31 A1001      14.150   9.895   9.620  1.00 25.33    -0.240 NA
HETATM    8  C11 P31 A1001      12.432   8.524  10.027  1.00 25.30    -0.022 A 
HETATM    9  C30 P31 A1001      13.400   8.877   9.102  1.00 24.88     0.127 A 
HETATM   10 CL1  P31 A1001      11.757  10.758  14.776  1.00 34.13    -0.083 Cl
ENDROOT
BRANCH   8  11
HETATM   11  C12 P31 A1001      11.391   7.463   9.900  1.00 23.87     0.081 C 
BRANCH  11  12
HETATM   12  C15 P31 A1001      11.982   6.169  10.368  1.00 23.54    -0.036 A 
HETATM   13  C16 P31 A1001      11.853   5.753  11.683  1.00 25.10     0.126 A 
HETATM   14  N18 P31 A1001      12.363   4.604  12.172  1.00 25.23    -0.243 NA
HETATM   15  C19 P31 A1001      13.051   3.797  11.328  1.00 25.98     0.123 A 
HETATM   16  C20 P31 A1001      13.229   4.141   9.990  1.00 23.70     0.051 A 
HETATM   17  C22 P31 A1001      12.693   5.332   9.514  1.00 24.66     0.012 A 
BRANCH  15  18
HETATM   18  N24 P31 A1001      13.592   2.604  11.784  1.00 25.73    -0.371 N 
HETATM   19  H8  P31 A1001      14.610   2.561  12.108  1.00 26.42     0.161 HD
BRANCH  18  20
HETATM   20  C26 P31 A1001      12.765   1.421  11.815  1.00 26.16     0.161 C 
BRANCH  20  21
HETATM   21  C29 P31 A1001      13.224   0.398  10.820  1.00 25.18    -0.023 A 
HETATM   22  C32 P31 A1001      13.582  -0.875  11.235  1.00 25.56     0.126 A 
HETATM   23  N34 P31 A1001      14.009  -1.856  10.418  1.00 26.39    -0.256 NA
HETATM   24  C35 P31 A1001      14.093  -1.569   9.103  1.00 26.76     0.140 A 
HETATM   25  C36 P31 A1001      13.760  -0.325   8.580  1.00 24.14     0.037 A 
HETATM   26  C38 P31 A1001      13.322   0.665   9.455  1.00 27.03     0.012 A 
BRANCH  24  27
HETATM   27  C40 P31 A1001      14.574  -2.670   8.212  1.00 29.35     0.434 C 
HETATM   28  F41 P31 A1001      15.224  -3.650   8.887  1.00 31.91    -0.165 F 
HETATM   29  F42 P31 A1001      13.557  -3.285   7.559  1.00 29.59    -0.165 F 
HETATM   30  F43 P31 A1001      15.432  -2.254   7.247  1.00 31.32    -0.165 F 
ENDBRANCH  24  27
ENDBRANCH  20  21
ENDBRANCH  18  20
ENDBRANCH  15  18
ENDBRANCH  11  12
ENDBRANCH   8  11
TORSDOF 6
