REMARK VINA RESULT:      -8.9      6.391     12.022
REMARK  6 active torsions:
REMARK  status: ('A' for Active; 'I' for Inactive)
REMARK    1  A    between atoms: C11_8  and  C12_9 
REMARK    2  A    between atoms: C12_9  and  C15_10 
REMARK    3  A    between atoms: C19_13  and  N24_16 
REMARK    4  A    between atoms: N24_16  and  C26_17 
REMARK    5  A    between atoms: C26_17  and  C29_18 
REMARK    6  A    between atoms: C35_22  and  C40_25 
ROOT
HETATM    1  C1  P31 A1001       9.370   8.029   9.383  1.00 27.50     0.052 A 
HETATM    2  C2  P31 A1001       9.973   8.544   8.246  1.00 26.40     0.143 A 
HETATM    3  N4  P31 A1001      11.223   8.251   7.822  1.00 27.19    -0.239 NA
HETATM    4  C5  P31 A1001      10.074   7.137  10.182  1.00 24.53     0.041 A 
HETATM    5  C7  P31 A1001      11.377   6.803   9.786  1.00 24.15     0.021 A 
HETATM    6  C8  P31 A1001      11.864   7.386   8.624  1.00 25.48     0.159 A 
HETATM    7  N9  P31 A1001      13.133   6.928   8.429  1.00 25.33    -0.240 NA
HETATM    8  C11 P31 A1001      12.402   5.956  10.305  1.00 25.30    -0.022 A 
HETATM    9  C30 P31 A1001      13.471   6.064   9.433  1.00 24.88     0.127 A 
HETATM   10 CL1  P31 A1001       7.773   8.474   9.820  1.00 34.13    -0.083 Cl
ENDROOT
BRANCH   8  11
HETATM   11  C12 P31 A1001      12.314   5.131  11.544  1.00 23.87     0.081 C 
BRANCH  11  12
HETATM   12  C15 P31 A1001      12.551   3.699  11.171  1.00 23.54    -0.036 A 
HETATM   13  C16 P31 A1001      12.787   2.734  12.136  1.00 25.10     0.126 A 
HETATM   14  N18 P31 A1001      13.013   1.431  11.871  1.00 25.23    -0.243 NA
HETATM   15  C19 P31 A1001      13.013   1.031  10.577  1.00 25.98     0.123 A 
HETATM   16  C20 P31 A1001      12.786   1.937   9.544  1.00 23.70     0.051 A 
HETATM   17  C22 P31 A1001      12.557   3.274   9.847  1.00 24.66     0.012 A 
BRANCH  15  18
HETATM   18  N24 P31 A1001      13.238  -0.299  10.254  1.00 25.73    -0.371 N 
HETATM   19  H8  P31 A1001      13.245  -1.048  11.017  1.00 26.42     0.161 HD
BRANCH  18  20
HETATM   20  C26 P31 A1001      13.465  -0.661   8.874  1.00 26.16     0.161 C 
BRANCH  20  21
HETATM   21  C29 P31 A1001      14.068  -2.029   8.752  1.00 25.18    -0.023 A 
HETATM   22  C32 P31 A1001      13.269  -3.158   8.833  1.00 25.56     0.126 A 
HETATM   23  N34 P31 A1001      13.718  -4.424   8.739  1.00 26.39    -0.256 NA
HETATM   24  C35 P31 A1001      15.044  -4.594   8.554  1.00 26.76     0.140 A 
HETATM   25  C36 P31 A1001      15.935  -3.532   8.461  1.00 24.14     0.037 A 
HETATM   26  C38 P31 A1001      15.433  -2.237   8.562  1.00 27.03     0.012 A 
BRANCH  24  27
HETATM   27  C40 P31 A1001      15.525  -6.007   8.458  1.00 29.35     0.434 C 
HETATM   28  F41 P31 A1001      16.403  -6.198   7.444  1.00 31.91    -0.165 F 
HETATM   29  F42 P31 A1001      16.168  -6.408   9.583  1.00 29.59    -0.165 F 
HETATM   30  F43 P31 A1001      14.531  -6.909   8.263  1.00 31.32    -0.165 F 
ENDBRANCH  24  27
ENDBRANCH  20  21
ENDBRANCH  18  20
ENDBRANCH  15  18
ENDBRANCH  11  12
ENDBRANCH   8  11
TORSDOF 6
