REMARK VINA RESULT:      -8.6      2.061      3.549
REMARK  6 active torsions:
REMARK  status: ('A' for Active; 'I' for Inactive)
REMARK    1  A    between atoms: C11_8  and  C12_9 
REMARK    2  A    between atoms: C12_9  and  C15_10 
REMARK    3  A    between atoms: C19_13  and  N24_16 
REMARK    4  A    between atoms: N24_16  and  C26_17 
REMARK    5  A    between atoms: C26_17  and  C29_18 
REMARK    6  A    between atoms: C35_22  and  C40_25 
ROOT
HETATM    1  C1  P31 A1001      18.805  -6.184   5.174  1.00 27.50     0.052 A 
HETATM    2  C2  P31 A1001      19.874  -6.310   6.048  1.00 26.40     0.143 A 
HETATM    3  N4  P31 A1001      19.828  -6.083   7.380  1.00 27.19    -0.239 NA
HETATM    4  C5  P31 A1001      17.566  -5.794   5.667  1.00 24.53     0.041 A 
HETATM    5  C7  P31 A1001      17.466  -5.544   7.042  1.00 24.15     0.021 A 
HETATM    6  C8  P31 A1001      18.611  -5.708   7.810  1.00 25.48     0.159 A 
HETATM    7  N9  P31 A1001      18.293  -5.416   9.102  1.00 25.33    -0.240 NA
HETATM    8  C11 P31 A1001      16.415  -5.139   7.919  1.00 25.30    -0.022 A 
HETATM    9  C30 P31 A1001      16.972  -5.072   9.185  1.00 24.88     0.127 A 
HETATM   10 CL1  P31 A1001      18.986  -6.502   3.499  1.00 34.13    -0.083 Cl
ENDROOT
BRANCH   8  11
HETATM   11  C12 P31 A1001      15.007  -4.848   7.525  1.00 23.87     0.081 C 
BRANCH  11  12
HETATM   12  C15 P31 A1001      14.581  -3.584   8.207  1.00 23.54    -0.036 A 
HETATM   13  C16 P31 A1001      15.362  -2.441   8.158  1.00 25.10     0.126 A 
HETATM   14  N18 P31 A1001      15.041  -1.274   8.751  1.00 25.23    -0.243 NA
HETATM   15  C19 P31 A1001      13.881  -1.205   9.447  1.00 25.98     0.123 A 
HETATM   16  C20 P31 A1001      13.037  -2.310   9.549  1.00 23.70     0.051 A 
HETATM   17  C22 P31 A1001      13.394  -3.501   8.927  1.00 24.66     0.012 A 
BRANCH  15  18
HETATM   18  N24 P31 A1001      13.507  -0.026  10.074  1.00 25.73    -0.371 N 
HETATM   19  H8  P31 A1001      13.137  -0.040  11.078  1.00 26.42     0.161 HD
BRANCH  18  20
HETATM   20  C26 P31 A1001      13.623   1.221   9.355  1.00 26.16     0.161 C 
BRANCH  20  21
HETATM   21  C29 P31 A1001      13.151   2.382  10.181  1.00 25.18    -0.023 A 
HETATM   22  C32 P31 A1001      12.929   2.232  11.540  1.00 25.56     0.126 A 
HETATM   23  N34 P31 A1001      12.503   3.212  12.360  1.00 26.39    -0.256 NA
HETATM   24  C35 P31 A1001      12.279   4.422  11.808  1.00 26.76     0.140 A 
HETATM   25  C36 P31 A1001      12.469   4.681  10.456  1.00 24.14     0.037 A 
HETATM   26  C38 P31 A1001      12.909   3.644   9.639  1.00 27.03     0.012 A 
BRANCH  24  27
HETATM   27  C40 P31 A1001      11.801   5.496  12.733  1.00 29.35     0.434 C 
HETATM   28  F41 P31 A1001      12.173   6.738  12.338  1.00 31.91    -0.165 F 
HETATM   29  F42 P31 A1001      10.448   5.528  12.827  1.00 29.59    -0.165 F 
HETATM   30  F43 P31 A1001      12.254   5.361  14.004  1.00 31.32    -0.165 F 
ENDBRANCH  24  27
ENDBRANCH  20  21
ENDBRANCH  18  20
ENDBRANCH  15  18
ENDBRANCH  11  12
ENDBRANCH   8  11
TORSDOF 6
