REMARK VINA RESULT:     -11.5      0.000      0.000
REMARK  6 active torsions:
REMARK  status: ('A' for Active; 'I' for Inactive)
REMARK    1  A    between atoms: C11_8  and  C12_9 
REMARK    2  A    between atoms: C12_9  and  C15_10 
REMARK    3  A    between atoms: C19_13  and  N24_16 
REMARK    4  A    between atoms: N24_16  and  C26_17 
REMARK    5  A    between atoms: C26_17  and  C29_18 
REMARK    6  A    between atoms: C35_22  and  C40_25 
ROOT
HETATM    1  C1  P31 A1001      19.471  -6.880   2.786  1.00 27.50     0.052 A 
HETATM    2  C2  P31 A1001      20.669  -6.187   2.876  1.00 26.40     0.143 A 
HETATM    3  N4  P31 A1001      21.213  -5.710   4.017  1.00 27.19    -0.239 NA
HETATM    4  C5  P31 A1001      18.739  -7.125   3.940  1.00 24.53     0.041 A 
HETATM    5  C7  P31 A1001      19.260  -6.649   5.151  1.00 24.15     0.021 A 
HETATM    6  C8  P31 A1001      20.471  -5.971   5.106  1.00 25.48     0.159 A 
HETATM    7  N9  P31 A1001      20.789  -5.600   6.378  1.00 25.33    -0.240 NA
HETATM    8  C11 P31 A1001      18.840  -6.687   6.514  1.00 25.30    -0.022 A 
HETATM    9  C30 P31 A1001      19.816  -6.026   7.239  1.00 24.88     0.127 A 
HETATM   10 CL1  P31 A1001      18.880  -7.439   1.276  1.00 34.13    -0.083 Cl
ENDROOT
BRANCH   8  11
HETATM   11  C12 P31 A1001      17.590  -7.318   7.029  1.00 23.87     0.081 C 
BRANCH  11  12
HETATM   12  C15 P31 A1001      16.718  -6.238   7.592  1.00 23.54    -0.036 A 
HETATM   13  C16 P31 A1001      16.005  -6.427   8.764  1.00 25.10     0.126 A 
HETATM   14  N18 P31 A1001      15.199  -5.501   9.324  1.00 25.23    -0.243 NA
HETATM   15  C19 P31 A1001      15.071  -4.303   8.703  1.00 25.98     0.123 A 
HETATM   16  C20 P31 A1001      15.752  -4.031   7.518  1.00 23.70     0.051 A 
HETATM   17  C22 P31 A1001      16.575  -5.005   6.964  1.00 24.66     0.012 A 
BRANCH  15  18
HETATM   18  N24 P31 A1001      14.256  -3.318   9.240  1.00 25.73    -0.371 N 
HETATM   19  H8  P31 A1001      13.884  -3.408  10.238  1.00 26.42     0.161 HD
BRANCH  18  20
HETATM   20  C26 P31 A1001      13.915  -2.169   8.434  1.00 26.16     0.161 C 
BRANCH  20  21
HETATM   21  C29 P31 A1001      13.664  -0.955   9.279  1.00 25.18    -0.023 A 
HETATM   22  C32 P31 A1001      13.655  -1.052  10.661  1.00 25.56     0.126 A 
HETATM   23  N34 P31 A1001      13.436  -0.022  11.500  1.00 26.39    -0.256 NA
HETATM   24  C35 P31 A1001      13.208   1.186  10.945  1.00 26.76     0.140 A 
HETATM   25  C36 P31 A1001      13.194   1.394   9.571  1.00 24.14     0.037 A 
HETATM   26  C38 P31 A1001      13.425   0.306   8.735  1.00 27.03     0.012 A 
BRANCH  24  27
HETATM   27  C40 P31 A1001      12.962   2.317  11.892  1.00 29.35     0.434 C 
HETATM   28  F41 P31 A1001      12.280   1.938  13.001  1.00 31.91    -0.165 F 
HETATM   29  F42 P31 A1001      14.115   2.873  12.341  1.00 29.59    -0.165 F 
HETATM   30  F43 P31 A1001      12.250   3.337  11.351  1.00 31.32    -0.165 F 
ENDBRANCH  24  27
ENDBRANCH  20  21
ENDBRANCH  18  20
ENDBRANCH  15  18
ENDBRANCH  11  12
ENDBRANCH   8  11
TORSDOF 6
