#
#	File Created by: Spartan '14 Export
#

@<TRIPOS>MOLECULE
M0001
17 16
SMALL
NO_CHARGES


@<TRIPOS>ATOM
    1   C1        -0.394182332     1.039513762     1.673353767     C.3   1  M0001
    2   H2         0.592574793     0.997629754     2.145556613       H   1  M0001
    3   H3        -0.869125250     1.981664796     1.963456277       H   1  M0001
    4   C4        -0.282107534     0.955663937     0.151502973     C.3   1  M0001
    5   H5         0.210817763     1.865970290    -0.210772994       H   1  M0001
    6   H6        -1.289440280     0.933776728    -0.284214152       H   1  M0001
    7   C7         0.511930336    -0.272133808    -0.329598870     C.3   1  M0001
    8   H8         1.506423656    -0.252883101     0.131563209       H   1  M0001
    9   C9         0.679980928    -0.247627247    -1.847966105     C.3   1  M0001
   10   H10        1.208314762     0.658610375    -2.163131013       H   1  M0001
   11   H11       -0.288192246    -0.268096657    -2.360796047       H   1  M0001
   12   H12        1.264216969    -1.107986238    -2.192769516       H   1  M0001
   13   O13       -1.188643696    -0.020773841     2.187768629       O   1  M0001
   14   H14       -0.873338182    -0.831584660     1.729670422       H   1  M0001
   15   N15       -0.153417384    -1.517672830     0.075491273   N.pl3   1  M0001
   16   H16       -1.041213961    -1.601672052    -0.426650842       H   1  M0001
   17   H17        0.405401659    -2.312399209    -0.242463626       H   1  M0001


@<TRIPOS>BOND
    1      1      2    1
    2      1      3    1
    3      4      5    1
    4      4      6    1
    5      1      4    1
    6      7      8    1
    7      4      7    1
    8      9     10    1
    9      9     11    1
   10      9     12    1
   11      7      9    1
   12     13     14    1
   13      1     13    1
   14     15     16    1
   15     15     17    1
   16      7     15    1
